/*--------------------------------*- C++ -*----------------------------------*\
  =========                 |
  \\      /  F ield         | OpenFOAM: The Open Source CFD Toolbox
   \\    /   O peration     | Website:  https://openfoam.org
    \\  /    A nd           | Version:  6
     \\/     M anipulation  |
\*---------------------------------------------------------------------------*/
FoamFile
{
    version     2.0;
    format      ascii;
    class       polyBoundaryMesh;
    location    "constant/polyMesh";
    object      boundary;
}
// * * * * * * * * * * * * * * * * * * * * * * * * * * * * * * * * * * * * * //

3
(
    inlet
    {
        type            patch;
        nFaces          3600;
        startFace       2132400;
    }
    outlet
    {
        type            patch;
        nFaces          3600;
        startFace       2136000;
    }
    wall
    {
        type            wall;
        inGroups        1(wall);
        nFaces          48000;
        startFace       2139600;
    }
)

// ************************************************************************* //
